eyJhbGciOiJQQkVTMi1IUzI1NitBMTI4S1ciLCJjcmVhdGVkIjoiMjAyNS0wMS0yMCAxNTo1ODo1Ny4wMzQ1MzggKzA5MDAgS1NUIG09KzAuMDMyNzU2MDQzIiwiZW5jIjoiQTI1NkdDTSIsInAyYyI6ODE5MiwicDJzIjoiTWZJMU01UVU2aVpEY0RTWSJ9.pFr1WEFGwKOBWBdxYljNSHdvMip_sTULQpACQ7kk9T-otgNyFQX6tg.XiAhbdav-HMLlYoE.Ocecr3u5eJnpLpdD_B3mmX1-9yXCSycQMjT0PdBypGL8tS3n1K1XHLjz-eQxGIuXUm-D_NJkh-MT3DatHEi_H8Xb1tjSGg018Z1L7OkVLqb26K9PwvrlpzKrWotLZZpDKfStjwYDg0o6rt3cCfvbrMNL8kMojO4yWy-QM1IhaYpr2YaFZvrBJiJdYY0CtKDN0gLwq4B5ukH0KkJHydMpjSUo_nMicZVfaFtOwuz_eZl8X_yFcvCVaiHXc6eQow.BUSK5lyrJ1Lh_UPJq-vOZQ